<?xml version="1.0" encoding="UTF-8"?>

<!-- generated on Thu May 26 17:34:07 2016 by SUMO polyconvert Version 0.23.0
<?xml version="1.0" encoding="UTF-8"?>

<configuration xmlns:xsi="http://www.w3.org/2001/XMLSchema-instance" xsi:noNamespaceSchemaLocation="http://sumo.dlr.de/xsd/polyconvertConfiguration.xsd">

    <input>
        <net-file value="sbg.net.xml"/>
        <osm-files value="colmar800m_bbox.osm.xml"/>
        <type-file value="/home/frederic/Documents/VANET/ns-3.15/frederic/scripts/type_sumo_poly.xml"/>
    </input>

    <output>
        <output-file value="sbg.poly.xml"/>
    </output>

</configuration>
-->

<additional xmlns:xsi="http://www.w3.org/2001/XMLSchema-instance" xsi:noNamespaceSchemaLocation="http://sumo.dlr.de/xsd/additional_file.xsd">
    <location netOffset="-407547.85,-5381850.63" convBoundary="-1759.62,-1209.17,2019.36,2185.24" origBoundary="7.722778,48.571798,7.773766,48.602762" projParameter="+proj=utm +zone=32 +ellps=WGS84 +datum=WGS84 +units=m +no_defs"/>

    <poly id="10267197" type="unknown" color="51,128,255" fill="0" layer="-1.00" shape="1190.77,281.80 1198.35,277.16 1260.33,249.42 1267.88,246.04 1361.84,206.12 1370.68,202.19 1474.23,158.45 1484.78,153.93 1569.02,117.57 1613.74,98.26 1618.96,101.48 1643.98,161.16"/>
    <poly id="10273230" type="unknown" color="51,128,255" fill="0" layer="-1.00" shape="1299.49,550.57 1303.74,548.62 1361.00,522.42 1367.14,519.61 1381.46,512.70 1387.58,509.77 1461.58,473.59 1475.41,466.44 1485.71,461.96 1496.17,457.38 1511.19,450.34 1593.04,411.08 1600.22,407.64 1608.64,403.63 1693.90,362.97 1698.90,360.58 1704.22,358.06"/>
    <poly id="10273337" type="unknown" color="51,128,255" fill="0" layer="-1.00" shape="790.39,216.32 793.92,224.16 847.17,342.23"/>
    <poly id="10273455" type="unknown" color="51,128,255" fill="0" layer="-1.00" shape="626.06,32.48 613.89,58.18 600.61,98.61 599.69,106.68 610.80,151.24 609.97,155.66 593.50,179.56 579.23,194.14 573.30,197.32"/>
    <poly id="10273601" type="unknown" color="51,128,255" fill="0" layer="-1.00" shape="914.32,561.92 905.73,562.07 846.59,588.30 842.01,590.83 826.55,599.40 823.66,603.14 820.62,606.74 809.49,619.89 791.73,648.27 757.92,696.07"/>
    <poly id="10273604" type="unknown" color="51,128,255" fill="0" layer="-1.00" shape="971.68,307.77 994.93,322.75 1038.15,350.85 1057.41,362.49 1096.60,391.18 1108.94,403.66 1114.24,409.01"/>
    <poly id="10273605" type="unknown" color="51,128,255" fill="0" layer="-1.00" shape="1073.47,798.67 1084.47,797.39 1092.01,782.53 1111.40,733.71 1114.96,714.94 1120.26,679.67 1120.00,657.19 1117.02,635.82 1115.04,633.91 1108.69,612.09 1106.23,608.98"/>
    <poly id="10273606" type="unknown" color="51,128,255" fill="0" layer="-1.00" shape="1106.23,608.98 1089.12,613.89 1073.73,613.61 1069.97,612.36 1063.40,609.95 1052.47,600.69 1047.13,589.21 1041.37,570.11 1035.75,559.91 1028.58,551.16 1020.48,544.34"/>
    <poly id="10273607" type="unknown" color="51,128,255" fill="0" layer="-1.00" shape="1023.54,527.32 1074.80,526.98 1078.45,529.92"/>
    <poly id="10273622" type="unknown" color="51,128,255" fill="0" layer="-1.00" shape="1038.15,350.85 1036.02,358.77 1021.70,411.91 1018.28,417.55 1009.08,415.67 960.46,387.19"/>
    <poly id="10273658" type="unknown" color="51,128,255" fill="0" layer="-1.00" shape="1485.71,461.96 1479.97,451.63 1473.44,441.32 1470.94,435.34 1445.28,374.42 1409.88,292.57 1407.72,287.58 1405.00,281.28"/>
    <poly id="10273660" type="unknown" color="51,128,255" fill="0" layer="-1.00" shape="1483.09,639.99 1471.15,650.03"/>
    <poly id="10273661" type="unknown" color="51,128,255" fill="0" layer="-1.00" shape="1313.15,630.49 1317.69,630.18 1344.18,628.41 1400.79,698.38 1404.87,703.43 1409.76,706.73 1444.56,750.55 1469.85,782.37 1477.23,790.93 1484.81,799.94 1523.23,847.09 1583.10,921.51 1643.87,1002.30"/>
    <poly id="10273663" type="unknown" color="51,128,255" fill="0" layer="-1.00" shape="1256.47,356.77 1278.85,358.90 1434.10,435.23 1474.52,455.82 1485.71,461.96"/>
    <poly id="10273664" type="unknown" color="51,128,255" fill="0" layer="-1.00" shape="1474.23,158.45 1477.27,165.27 1502.31,224.26 1504.19,228.70 1507.19,235.77"/>
    <poly id="10273665" type="unknown" color="51,128,255" fill="0" layer="-1.00" shape="1556.05,326.70 1549.89,329.85 1445.28,374.42"/>
    <poly id="104687510" type="parking" color="184,184,179" fill="1" layer="-2.00" shape="644.24,519.23 648.42,528.48 672.15,517.84 669.89,512.82 666.60,514.29 664.69,510.07 644.24,519.23"/>
    <poly id="104687526" type="unknown" color="51,128,255" fill="0" layer="-1.00" shape="675.19,513.70 647.79,525.79"/>
    <poly id="104687528" type="unknown" color="51,128,255" fill="0" layer="-1.00" shape="676.27,519.39 675.19,513.70"/>
    <poly id="104687530" type="unknown" color="51,128,255" fill="0" layer="-1.00" shape="676.27,519.39 703.36,576.59 705.49,581.10 708.92,588.32 714.14,600.02 752.46,684.11 757.92,696.07"/>
    <poly id="105927052" type="unknown" color="51,128,255" fill="0" layer="-1.00" shape="1416.96,838.23 1409.64,830.65 1358.44,777.60 1341.90,757.48 1331.89,741.86 1322.36,722.27 1315.51,702.73 1309.92,682.16 1306.99,666.04 1305.74,650.73 1305.18,622.10 1303.28,601.29 1300.00,581.05 1292.32,556.20 1281.93,528.64 1271.20,508.80 1255.46,486.37 1237.92,466.37 1215.70,442.21 1173.09,396.08 1164.81,386.68"/>
    <poly id="110573443" type="unknown" color="51,128,255" fill="0" layer="-1.00" shape="865.34,168.18 910.88,140.63"/>
    <poly id="110573450" type="unknown" color="51,128,255" fill="0" layer="-1.00" shape="1103.70,203.96 1107.15,201.36 1109.98,196.33 1112.06,183.83"/>
    <poly id="110573451" type="unknown" color="51,128,255" fill="0" layer="-1.00" shape="1093.28,46.11 1095.47,51.08 1097.07,54.68 1098.64,59.20 1099.01,63.92 1125.79,122.17 1142.18,162.63 1143.08,171.84 1140.07,185.52 1140.05,193.30 1151.64,218.62 1157.46,224.11 1170.10,232.41 1175.65,238.77 1190.15,271.68 1198.35,277.16"/>
    <poly id="110573454" type="unknown" color="51,128,255" fill="0" layer="-1.00" shape="1115.67,219.87 1103.70,203.96 1098.42,203.09 1091.86,198.88 1088.68,194.15 1092.65,179.75 1097.32,169.88 1104.68,159.45 1111.83,153.60 1121.17,166.68 1129.23,187.83"/>
    <poly id="110580682" type="unknown" color="51,128,255" fill="0" layer="-1.00" shape="918.57,317.29 912.19,332.72"/>
    <poly id="110580685" type="unknown" color="51,128,255" fill="0" layer="-1.00" shape="992.28,225.77 1027.75,243.34 1032.03,245.57 1054.12,257.77"/>
    <poly id="110580687" type="unknown" color="51,128,255" fill="0" layer="-1.00" shape="909.75,300.96 902.81,304.49"/>
    <poly id="110580690" type="unknown" color="51,128,255" fill="0" layer="-1.00" shape="923.62,130.11 927.36,136.42 966.64,190.95 973.27,200.29 992.28,225.77"/>
    <poly id="110580692" type="unknown" color="51,128,255" fill="0" layer="-1.00" shape="637.23,619.57 634.27,620.97 631.26,622.23 627.97,623.73 624.23,625.41 619.80,627.42 555.93,656.14 546.94,659.70 467.80,695.22 417.17,716.85 393.83,726.81 371.53,736.72 246.67,792.17 222.05,802.97 208.53,809.55 173.53,824.46 146.76,835.97 54.45,877.39 50.95,878.91 23.43,890.99 11.86,895.95 0.00,901.29"/>
    <poly id="110580696" type="unknown" color="51,128,255" fill="0" layer="-1.00" shape="859.50,175.55 906.96,297.49 909.75,300.96 913.39,303.15"/>
    <poly id="110580703" type="unknown" color="51,128,255" fill="0" layer="-1.00" shape="913.39,303.15 916.17,310.75 918.57,317.29 928.46,312.87"/>
    <poly id="110580708" type="unknown" color="51,128,255" fill="0" layer="-1.00" shape="1054.12,257.77 1022.06,262.07 1011.12,267.22 1007.69,269.17"/>
    <poly id="110580709" type="unknown" color="51,128,255" fill="0" layer="-1.00" shape="913.39,303.15 928.15,297.33"/>
    <poly id="110580711" type="unknown" color="51,128,255" fill="0" layer="-1.00" shape="1010.40,275.68 1031.20,267.11 1039.92,267.66 1054.73,271.24 1068.76,277.26 1083.19,285.60 1087.07,283.74"/>
    <poly id="110580714" type="unknown" color="51,128,255" fill="0" layer="-1.00" shape="995.99,265.93 1000.70,262.62 1007.64,254.17 1010.22,246.82"/>
    <poly id="110768710" type="unknown" color="51,128,255" fill="0" layer="-1.00" shape="588.66,345.13 598.05,348.48 606.70,351.90 609.46,353.01 611.82,353.53"/>
    <poly id="110768712" type="unknown" color="51,128,255" fill="0" layer="-1.00" shape="637.08,417.74 637.01,411.26 638.14,403.23 638.03,397.88 626.23,372.35 619.91,368.71 612.35,368.16"/>
    <poly id="110768713" type="unknown" color="51,128,255" fill="0" layer="-1.00" shape="673.21,310.60 686.84,304.17 793.92,224.16 799.12,216.20 814.32,204.10 839.54,185.73 853.26,180.16 859.50,175.55 865.34,168.18"/>
    <poly id="110780645" type="unknown" color="51,128,255" fill="0" layer="-1.00" shape="892.57,740.67 899.63,733.60 937.92,695.27"/>
    <poly id="110780651" type="unknown" color="51,128,255" fill="0" layer="-1.00" shape="809.49,619.89 821.79,628.54 835.53,639.66 878.61,725.08 883.21,740.45 886.42,747.93 889.95,757.55 895.44,769.24 915.06,799.77 922.09,810.05 935.22,824.62 973.27,860.97 1030.62,918.74 1034.85,922.96 1039.07,941.70 1040.49,949.48 1039.69,953.65 1005.23,983.07 1005.51,988.45"/>
    <poly id="110780657" type="unknown" color="51,128,255" fill="0" layer="-1.00" shape="833.58,624.76 842.01,590.83"/>
    <poly id="110780659" type="unknown" color="51,128,255" fill="0" layer="-1.00" shape="892.57,740.67 893.87,745.70 895.63,757.87 899.84,767.38 923.13,801.79 943.48,823.79 979.34,860.85 1033.59,914.49 1037.37,921.09 1042.08,942.39"/>
    <poly id="110780676" type="unknown" color="51,128,255" fill="0" layer="-1.00" shape="821.79,628.54 825.13,706.21 829.67,785.07 833.20,847.01 835.55,886.06 819.09,891.69"/>
    <poly id="118495198" type="building" color="255,230,230" fill="1" layer="2.00" shape="1062.05,642.03 1060.32,641.79 1055.77,641.23 1053.94,652.70 1063.39,654.11 1062.05,642.03"/>
    <poly id="121071859" type="unknown" color="51,128,255" fill="0" layer="-1.00" shape="857.93,165.73 886.81,148.06 909.62,134.11"/>
    <poly id="121251116" type="unknown" color="51,128,255" fill="0" layer="-1.00" shape="1169.59,284.01 1190.77,281.80"/>
    <poly id="123313751" type="unknown" color="51,128,255" fill="0" layer="-1.00" shape="1230.66,349.76 1223.26,340.52 1184.58,292.91 1169.59,284.01"/>
    <poly id="139716045" type="unknown" color="51,128,255" fill="0" layer="-1.00" shape="563.03,294.50 601.56,239.41 605.21,234.19"/>
    <poly id="139716484" type="unknown" color="51,128,255" fill="0" layer="-1.00" shape="644.99,438.23 671.90,504.26"/>
    <poly id="14878207" type="amenity" color="237,199,199" fill="1" layer="2.00" shape="1136.59,142.21 1136.83,142.78 1136.60,143.40 1136.93,144.00 1137.36,144.21 1136.73,144.53 1136.59,145.14 1140.68,154.62 1141.16,154.92 1141.55,154.76 1142.01,155.88 1142.57,156.15 1144.35,155.42 1157.60,186.00 1155.65,186.82 1154.37,187.36 1154.11,188.06 1156.28,192.88 1156.87,192.82 1163.28,207.58 1162.72,207.88 1165.02,213.18 1166.65,212.51 1168.50,211.75 1181.70,242.45 1179.97,243.17 1179.74,243.26 1180.26,244.52 1179.85,245.06 1184.22,255.41 1184.84,255.20 1185.31,256.50 1186.30,257.03 1193.68,253.89 1193.42,253.39 1194.01,253.07 1193.70,252.15 1214.09,243.28 1214.55,244.13 1215.32,243.89 1215.54,244.40 1222.94,241.27 1222.73,240.63 1223.27,240.36 1222.76,238.95 1223.24,238.63 1218.88,228.36 1218.31,228.54 1217.79,226.94 1215.32,227.91 1206.74,207.85 1225.43,199.86 1227.73,205.07 1229.20,204.46 1229.58,205.06 1239.73,200.73 1239.57,200.08 1241.10,199.52 1234.15,183.07 1235.60,182.43 1233.46,177.54 1232.98,177.58 1226.72,162.95 1227.13,162.71 1224.88,157.60 1223.31,158.19 1216.29,141.87 1214.79,142.44 1214.51,141.88 1204.13,146.41 1204.37,147.02 1203.20,147.63 1203.71,149.45 1205.23,152.69 1186.64,160.81 1177.98,140.80 1180.20,139.92 1179.54,138.28 1179.97,138.00 1175.86,127.90 1175.29,128.12 1174.65,126.60 1173.96,126.84 1173.63,126.33 1166.28,129.45 1166.51,130.04 1165.77,130.38 1166.09,131.32 1145.63,140.07 1145.17,139.16 1144.43,139.42 1144.13,138.92 1136.59,142.21"/>
    <poly id="14878207#1" type="building" color="255,230,230" fill="1" layer="2.00" shape="1136.59,142.21 1136.83,142.78 1136.60,143.40 1136.93,144.00 1137.36,144.21 1136.73,144.53 1136.59,145.14 1140.68,154.62 1141.16,154.92 1141.55,154.76 1142.01,155.88 1142.57,156.15 1144.35,155.42 1157.60,186.00 1155.65,186.82 1154.37,187.36 1154.11,188.06 1156.28,192.88 1156.87,192.82 1163.28,207.58 1162.72,207.88 1165.02,213.18 1166.65,212.51 1168.50,211.75 1181.70,242.45 1179.97,243.17 1179.74,243.26 1180.26,244.52 1179.85,245.06 1184.22,255.41 1184.84,255.20 1185.31,256.50 1186.30,257.03 1193.68,253.89 1193.42,253.39 1194.01,253.07 1193.70,252.15 1214.09,243.28 1214.55,244.13 1215.32,243.89 1215.54,244.40 1222.94,241.27 1222.73,240.63 1223.27,240.36 1222.76,238.95 1223.24,238.63 1218.88,228.36 1218.31,228.54 1217.79,226.94 1215.32,227.91 1206.74,207.85 1225.43,199.86 1227.73,205.07 1229.20,204.46 1229.58,205.06 1239.73,200.73 1239.57,200.08 1241.10,199.52 1234.15,183.07 1235.60,182.43 1233.46,177.54 1232.98,177.58 1226.72,162.95 1227.13,162.71 1224.88,157.60 1223.31,158.19 1216.29,141.87 1214.79,142.44 1214.51,141.88 1204.13,146.41 1204.37,147.02 1203.20,147.63 1203.71,149.45 1205.23,152.69 1186.64,160.81 1177.98,140.80 1180.20,139.92 1179.54,138.28 1179.97,138.00 1175.86,127.90 1175.29,128.12 1174.65,126.60 1173.96,126.84 1173.63,126.33 1166.28,129.45 1166.51,130.04 1165.77,130.38 1166.09,131.32 1145.63,140.07 1145.17,139.16 1144.43,139.42 1144.13,138.92 1136.59,142.21"/>
    <poly id="14879073" type="unknown" color="51,128,255" fill="0" layer="-1.00" shape="674.52,201.96 649.32,183.99"/>
    <poly id="14879078" type="unknown" color="51,128,255" fill="0" layer="-1.00" shape="634.97,256.21 610.32,238.31"/>
    <poly id="14879372" type="unknown" color="51,128,255" fill="1" layer="-1.00" shape="533.32,431.66 534.63,434.81 548.01,465.32 557.54,486.41 571.16,517.01 575.24,521.19 583.16,523.41 589.18,529.34 589.80,520.79 592.96,513.92 592.56,506.76 578.22,476.62 568.62,456.11 554.80,425.80 553.30,422.66 548.44,420.00 542.94,418.07 536.81,412.46 536.89,420.40 534.25,425.47 533.32,431.66"/>
    <poly id="14879373" type="unknown" color="51,128,255" fill="0" layer="-1.00" shape="526.51,500.03 557.54,486.41 578.22,476.62 610.21,461.49"/>
    <poly id="14879374" type="unknown" color="51,128,255" fill="0" layer="-1.00" shape="516.84,479.54 548.01,465.32 568.62,456.11 599.93,441.72 605.59,447.28 609.08,454.67 610.21,461.49"/>
    <poly id="14972299" type="unknown" color="51,128,255" fill="0" layer="-1.00" shape="1302.78,326.59 1297.32,314.01 1270.98,253.20 1267.88,246.04"/>
    <poly id="14972347" type="unknown" color="51,128,255" fill="0" layer="-1.00" shape="1370.68,202.19 1373.79,209.19 1398.88,267.16 1401.67,273.59 1405.00,281.28"/>
    <poly id="15070973" type="unknown" color="51,128,255" fill="0" layer="-1.00" shape="905.73,562.07 907.19,512.17 907.29,508.70 907.53,500.32 907.82,488.77 909.91,404.88"/>
    <poly id="15071771" type="unknown" color="51,128,255" fill="0" layer="-1.00" shape="742.94,117.14 769.81,136.03 824.31,173.82 826.27,175.85 828.88,178.64 830.82,180.72 834.26,184.38"/>
    <poly id="151566701" type="building" color="255,230,230" fill="1" layer="2.00" shape="663.98,238.80 663.55,238.51 663.01,239.27 657.39,235.31 653.93,240.20 652.42,239.13 650.36,242.05 651.86,243.09 648.64,247.66 648.34,247.44 645.23,251.84 649.00,254.49 648.20,255.62 653.17,259.12 653.94,258.03 657.98,260.88 661.12,256.43 660.81,256.21 664.08,251.59 663.41,251.12 668.86,243.40 666.39,241.66 666.94,240.89 663.98,238.80"/>
    <poly id="151566702" type="building" color="255,230,230" fill="1" layer="2.00" shape="674.30,234.88 670.55,232.31 666.94,237.33 670.73,240.01 674.30,234.88"/>
    <poly id="151566703" type="building" color="255,230,230" fill="1" layer="2.00" shape="663.98,238.80 669.27,231.32 665.70,228.81 663.21,227.05 657.39,235.31 663.01,239.27 663.55,238.51 663.98,238.80"/>
    <poly id="151566704" type="building" color="255,230,230" fill="1" layer="2.00" shape="670.81,221.73 667.92,219.77 667.55,220.29 666.31,220.87 665.26,221.66 664.50,222.64 663.97,223.78 663.64,225.06 666.74,227.33 670.81,221.73"/>
    <poly id="15711308" type="unknown" color="51,128,255" fill="0" layer="-1.00" shape="627.97,623.73 619.77,606.25 594.69,552.75 590.86,545.10 587.58,539.24"/>
    <poly id="15711310" type="unknown" color="51,128,255" fill="0" layer="-1.00" shape="637.23,619.57 645.69,637.71 705.40,765.74"/>
    <poly id="15712485" type="unknown" color="51,128,255" fill="0" layer="-1.00" shape="671.90,504.26 640.37,519.31"/>
    <poly id="15719802" type="unknown" color="51,128,255" fill="0" layer="-1.00" shape="571.16,517.01 564.08,517.35 553.83,515.94 542.88,512.62 535.88,507.99 526.51,500.03"/>
    <poly id="15721518" type="unknown" color="51,128,255" fill="0" layer="-1.00" shape="573.30,197.32 567.09,199.67 534.09,212.12 517.64,213.47 493.05,210.44 443.39,208.91 436.71,207.52 408.91,194.89 376.74,181.20 370.18,178.95"/>
    <poly id="15726590" type="unknown" color="51,128,255" fill="0" layer="-1.00" shape="605.21,234.19 608.65,229.59 645.12,180.97 702.67,99.68 707.75,92.58"/>
    <poly id="15726793" type="unknown" color="51,128,255" fill="0" layer="-1.00" shape="563.03,294.50 568.04,298.37"/>
    <poly id="15726858" type="amenity" color="237,199,199" fill="1" layer="2.00" shape="647.53,412.37 655.92,408.50 656.55,409.89 664.36,406.45 663.68,404.91 671.95,401.10 669.36,395.36 672.89,393.78 673.55,395.34 682.27,391.40 683.32,393.78 686.16,392.51 685.12,390.11 708.10,379.72 707.82,379.07 708.21,378.91 703.83,369.55 688.30,376.64 676.72,350.82 691.91,343.81 691.67,343.33 692.08,343.12 687.64,333.47 679.28,337.29 666.72,343.05 664.32,344.15 652.89,349.38 653.47,350.93 649.91,352.52 647.17,346.87 638.86,350.51 638.21,349.06 630.52,352.70 631.09,354.11 623.59,357.47 622.67,357.89 625.86,364.88 628.05,363.91 632.14,372.81 630.68,373.44 634.04,380.83 632.81,381.38 634.64,385.36 636.36,389.12 637.58,388.52 641.10,396.10 642.48,395.44 646.55,404.40 644.23,405.35 647.53,412.37"/>
    <poly id="15726858#1" type="building" color="255,230,230" fill="1" layer="2.00" shape="647.53,412.37 655.92,408.50 656.55,409.89 664.36,406.45 663.68,404.91 671.95,401.10 669.36,395.36 672.89,393.78 673.55,395.34 682.27,391.40 683.32,393.78 686.16,392.51 685.12,390.11 708.10,379.72 707.82,379.07 708.21,378.91 703.83,369.55 688.30,376.64 676.72,350.82 691.91,343.81 691.67,343.33 692.08,343.12 687.64,333.47 679.28,337.29 666.72,343.05 664.32,344.15 652.89,349.38 653.47,350.93 649.91,352.52 647.17,346.87 638.86,350.51 638.21,349.06 630.52,352.70 631.09,354.11 623.59,357.47 622.67,357.89 625.86,364.88 628.05,363.91 632.14,372.81 630.68,373.44 634.04,380.83 632.81,381.38 634.64,385.36 636.36,389.12 637.58,388.52 641.10,396.10 642.48,395.44 646.55,404.40 644.23,405.35 647.53,412.37"/>
    <poly id="15727447" type="unknown" color="51,128,255" fill="0" layer="-1.00" shape="568.04,298.37 592.08,315.34"/>
    <poly id="15727448" type="unknown" color="51,128,255" fill="0" layer="-1.00" shape="592.08,315.34 606.13,326.00 610.33,333.34 614.44,339.41 616.18,341.72 617.23,343.64 611.82,353.53 611.65,359.99 612.35,368.16 616.45,370.46 634.52,410.63 637.08,417.74 639.85,426.07"/>
    <poly id="15727991" type="unknown" color="51,128,255" fill="0" layer="-1.00" shape="729.30,396.02 734.80,407.91 763.94,470.94 793.00,536.07 795.49,541.65 798.59,548.59 801.78,555.53 805.02,562.58 819.40,593.89 823.66,603.14"/>
    <poly id="15728212" type="unknown" color="51,128,255" fill="0" layer="-1.00" shape="916.17,310.75 906.84,315.01 893.63,321.04 847.17,342.23 741.78,390.32 729.30,396.02 716.77,401.59 643.28,434.07 639.66,435.70 637.57,436.60 629.44,439.97"/>
    <poly id="161591519" type="unknown" color="51,128,255" fill="0" layer="-1.00" shape="639.85,426.07 643.28,434.07 644.99,438.23"/>
    <poly id="161591527" type="unknown" color="51,128,255" fill="0" layer="-1.00" shape="1349.11,837.15 1296.10,778.08 1276.90,750.21 1268.41,728.26 1262.27,703.83 1260.87,629.22 1258.68,608.82 1255.55,592.23 1248.98,572.38 1241.64,555.29 1230.12,535.00 1216.25,516.24 1191.46,488.51"/>
    <poly id="161591528" type="unknown" color="51,128,255" fill="0" layer="-1.00" shape="675.19,513.70 671.90,504.26"/>
    <poly id="161591529" type="unknown" color="51,128,255" fill="0" layer="-1.00" shape="675.19,513.70 681.61,507.51 763.94,470.94 909.91,404.88"/>
    <poly id="161591534" type="unknown" color="51,128,255" fill="0" layer="-1.00" shape="754.65,700.92 717.76,755.51 710.47,761.54 707.46,764.04 705.40,765.74"/>
    <poly id="161591537" type="unknown" color="51,128,255" fill="0" layer="-1.00" shape="757.92,696.07 754.65,700.92"/>
    <poly id="183655644" type="unknown" color="51,128,255" fill="0" layer="-1.00" shape="616.03,234.12 608.50,244.84"/>
    <poly id="183655645" type="unknown" color="51,128,255" fill="0" layer="-1.00" shape="571.24,296.86 568.35,300.81"/>
    <poly id="183655651" type="unknown" color="51,128,255" fill="0" layer="-1.00" shape="608.50,244.84 571.24,296.86"/>
    <poly id="183655653" type="unknown" color="51,128,255" fill="0" layer="-1.00" shape="589.51,316.10 592.32,312.25"/>
    <poly id="183655654" type="unknown" color="51,128,255" fill="0" layer="-1.00" shape="859.32,144.40 871.65,168.39"/>
    <poly id="183655660" type="unknown" color="51,128,255" fill="0" layer="-1.00" shape="669.66,200.84 671.57,197.78"/>
    <poly id="183655661" type="unknown" color="51,128,255" fill="0" layer="-1.00" shape="712.82,101.24 652.42,183.72"/>
    <poly id="183655663" type="unknown" color="51,128,255" fill="0" layer="-1.00" shape="592.32,312.25 630.01,259.12"/>
    <poly id="183655664" type="unknown" color="51,128,255" fill="0" layer="-1.00" shape="652.42,183.72 650.39,186.53"/>
    <poly id="183655669" type="unknown" color="51,128,255" fill="0" layer="-1.00" shape="630.01,259.12 637.07,249.57"/>
    <poly id="183655671" type="unknown" color="51,128,255" fill="0" layer="-1.00" shape="650.39,186.53 616.03,234.12"/>
    <poly id="183655676" type="unknown" color="51,128,255" fill="0" layer="-1.00" shape="637.07,249.57 645.49,235.08 669.66,200.84"/>
    <poly id="183655679" type="unknown" color="51,128,255" fill="0" layer="-1.00" shape="500.65,381.01 565.31,346.08 570.08,342.50 589.51,316.10"/>
    <poly id="183655686" type="unknown" color="51,128,255" fill="0" layer="-1.00" shape="568.35,300.81 551.47,323.66 481.08,360.53 476.08,364.28"/>
    <poly id="183655688" type="unknown" color="51,128,255" fill="0" layer="-1.00" shape="671.57,197.78 694.01,167.53 714.84,143.03 733.33,125.42 734.22,117.17"/>
    <poly id="183655701" type="unknown" color="51,128,255" fill="0" layer="-1.00" shape="912.19,332.72 909.72,323.24 909.19,321.13 906.84,315.01 902.81,304.49 853.26,180.16 849.91,174.26 839.95,173.95 834.89,174.28 826.27,175.85"/>
    <poly id="183655702" type="unknown" color="51,128,255" fill="0" layer="-1.00" shape="909.91,404.88 912.19,332.72"/>
    <poly id="183655706" type="unknown" color="51,128,255" fill="0" layer="-1.00" shape="511.28,403.17 515.50,399.15 520.72,401.25 540.48,394.94 562.40,392.32 582.34,394.52 597.66,400.56 609.46,407.30 625.77,423.98 630.20,426.97 633.92,428.77 636.09,427.81 639.85,426.07"/>
    <poly id="183655708" type="unknown" color="51,128,255" fill="0" layer="-1.00" shape="612.85,544.68 611.59,548.29 611.67,553.06 635.81,603.84 639.81,607.10 644.25,616.51 647.89,625.32 648.25,630.38 652.36,639.32 704.32,754.52 710.47,761.54 714.33,773.34 739.61,831.47 825.33,1018.25 832.94,1034.88 835.81,1041.11 838.83,1052.89 865.60,1110.33 890.30,1163.47"/>
    <poly id="183655710" type="unknown" color="51,128,255" fill="0" layer="-1.00" shape="928.15,297.33 995.99,265.93"/>
    <poly id="183655722" type="unknown" color="51,128,255" fill="0" layer="-1.00" shape="871.65,168.39 884.11,204.48 892.45,249.77"/>
    <poly id="183655724" type="unknown" color="51,128,255" fill="0" layer="-1.00" shape="913.39,303.15 892.45,249.77 866.51,182.76 859.50,175.55"/>
    <poly id="183655726" type="unknown" color="51,128,255" fill="0" layer="-1.00" shape="676.70,287.26 720.01,254.35 816.53,182.49 824.31,173.82 855.52,150.64"/>
    <poly id="183655732" type="unknown" color="51,128,255" fill="0" layer="-1.00" shape="511.28,403.17 516.10,392.54 517.47,389.52 521.55,380.53 588.66,345.13 610.33,333.34 664.80,295.52 676.70,287.26"/>
    <poly id="183655735" type="unknown" color="51,128,255" fill="0" layer="-1.00" shape="623.61,449.06 613.16,453.74 610.21,461.49 610.38,469.21 609.04,478.60 605.72,488.06 601.41,496.83 597.00,502.38 592.56,506.76"/>
    <poly id="19349569" type="unknown" color="51,128,255" fill="0" layer="-1.00" shape="1054.12,257.77 1087.07,283.74 1123.13,320.09 1165.39,366.36 1171.58,374.54 1175.45,382.26"/>
    <poly id="200855122" type="unknown" color="51,128,255" fill="1" layer="-1.00" shape="1479.97,451.63 1474.52,455.82 1473.46,461.87 1475.41,466.44 1479.35,469.53 1484.55,470.59 1490.15,469.50 1494.57,466.55 1496.51,461.50 1496.17,457.38 1491.75,452.39 1486.38,450.32 1479.97,451.63"/>
    <poly id="202010684" type="unknown" color="51,128,255" fill="0" layer="-1.00" shape="662.68,334.04 664.35,337.76"/>
    <poly id="202010685" type="unknown" color="51,128,255" fill="0" layer="-1.00" shape="657.20,321.80 659.54,327.02"/>
    <poly id="202010686" type="unknown" color="51,128,255" fill="0" layer="-1.00" shape="664.80,295.52 673.21,310.60"/>
    <poly id="202010687" type="unknown" color="51,128,255" fill="0" layer="-1.00" shape="659.54,327.02 660.69,329.60"/>
    <poly id="202010688" type="unknown" color="51,128,255" fill="0" layer="-1.00" shape="668.65,313.79 671.14,319.31"/>
    <poly id="202010689" type="unknown" color="51,128,255" fill="0" layer="-1.00" shape="671.14,319.31 672.30,321.86"/>
    <poly id="202010690" type="unknown" color="51,128,255" fill="0" layer="-1.00" shape="660.69,329.60 662.68,334.04"/>
    <poly id="202010691" type="unknown" color="51,128,255" fill="0" layer="-1.00" shape="676.83,331.87 679.28,337.29"/>
    <poly id="202010692" type="unknown" color="51,128,255" fill="0" layer="-1.00" shape="672.30,321.86 675.04,327.92"/>
    <poly id="202010693" type="unknown" color="51,128,255" fill="0" layer="-1.00" shape="675.04,327.92 676.83,331.87"/>
    <poly id="202010694" type="unknown" color="51,128,255" fill="0" layer="-1.00" shape="664.35,337.76 666.72,343.05"/>
    <poly id="209160626" type="unknown" color="51,128,255" fill="0" layer="-1.00" shape="947.59,483.24 955.21,479.98"/>
    <poly id="209160627" type="unknown" color="51,128,255" fill="0" layer="-1.00" shape="913.66,497.71 947.59,483.24"/>
    <poly id="209160675" type="unknown" color="51,128,255" fill="0" layer="-1.00" shape="971.19,306.27 968.04,300.21"/>
    <poly id="213780887" type="water" color="181,209,209" fill="1" layer="-10.00" shape="986.31,306.12 994.21,308.27 1082.99,361.87 1105.65,380.23 1117.06,391.23 1120.94,396.09 1136.63,410.51 1142.16,416.74 1175.77,454.86 1204.76,491.23 1233.04,523.07 1245.05,543.23 1254.75,565.66 1261.35,586.44 1266.39,612.71 1267.81,636.17 1269.02,692.99 1271.97,713.65 1274.57,725.99 1281.76,744.60 1296.52,767.88 1311.28,785.25 1361.71,842.43 1374.40,853.80 1401.86,833.04 1388.99,821.66 1374.11,807.53 1353.78,786.11 1326.89,754.41 1312.82,731.40 1304.77,708.79 1300.57,686.34 1296.38,650.72 1294.12,614.62 1290.26,584.47 1285.67,567.54 1279.56,545.84 1271.06,525.87 1259.45,505.69 1246.62,484.83 1165.26,398.21 1164.77,397.69 1150.02,383.76 1144.73,378.31 1118.55,347.42 1083.66,321.24 1033.03,288.47 1014.23,276.97 989.56,263.50 947.88,284.37 986.31,306.12"/>
    <poly id="213780889" type="unknown" color="51,128,255" fill="0" layer="-1.00" shape="928.46,312.87 957.26,300.07 959.13,299.85 961.71,300.38 963.85,300.57 968.04,300.21 973.12,297.07 974.49,295.66 975.94,293.90 977.72,291.15 978.90,290.14 1010.40,275.68"/>
    <poly id="213780890" type="water" color="181,209,209" fill="1" layer="-10.00" shape="929.55,316.41 923.89,482.89 939.09,476.00 945.91,308.94 947.88,284.37 931.05,292.06 930.44,305.21 929.55,316.41"/>
    <poly id="21381429" type="unknown" color="51,128,255" fill="0" layer="-1.00" shape="1054.12,257.77 1074.81,266.44 1095.28,273.01 1123.42,281.98 1138.47,285.03 1158.54,285.23 1169.59,284.01"/>